Vandetanib
     RDKit          3D

 30 33  0  0  0  0  0  0  0  0999 V2000
   38.0455   74.4572   37.1107 C   0  0  0  0  0  0  0  0  0  0  0  0
   38.8507   75.5505   37.5646 N   0  0  0  0  0  0  0  0  0  0  0  0
   39.0450   76.4988   36.4860 C   0  0  0  0  0  0  0  0  0  0  0  0
   39.8110   77.7022   36.9890 C   0  0  0  0  0  0  0  0  0  0  0  0
   41.1476   77.2845   37.5577 C   0  0  2  0  0  0  0  0  0  0  0  0
   41.0250   76.1554   38.5258 C   0  0  0  0  0  0  0  0  0  0  0  0
   40.1147   75.0488   38.0650 C   0  0  0  0  0  0  0  0  0  0  0  0
   41.7767   78.4759   38.2013 C   0  0  0  0  0  0  0  0  0  0  0  0
   42.6966   78.0499   39.1544 O   0  0  0  0  0  0  0  0  0  0  0  0
   43.7270   78.8919   39.5505 C   0  0  0  0  0  0  0  0  0  0  0  0
   44.3575   78.5902   40.7289 C   0  0  0  0  0  0  0  0  0  0  0  0
   45.3904   79.4424   41.1168 C   0  0  0  0  0  0  0  0  0  0  0  0
   45.7647   80.5297   40.3653 C   0  0  0  0  0  0  0  0  0  0  0  0
   45.0907   80.7884   39.1785 C   0  0  0  0  0  0  0  0  0  0  0  0
   44.0605   79.9600   38.7671 C   0  0  0  0  0  0  0  0  0  0  0  0
   45.4405   81.8500   38.4243 N   0  0  0  0  0  0  0  0  0  0  0  0
   46.4343   82.6561   38.8135 C   0  0  0  0  0  0  0  0  0  0  0  0
   47.0907   82.4253   39.9449 N   0  0  0  0  0  0  0  0  0  0  0  0
   46.7885   81.3867   40.7357 C   0  0  0  0  0  0  0  0  0  0  0  0
   47.5056   81.1529   41.9508 N   0  0  0  0  0  0  0  0  0  0  0  0
   48.4381   82.1680   42.3686 C   0  0  0  0  0  0  0  0  0  0  0  0
   47.9124   83.3003   42.9545 C   0  0  0  0  0  0  0  0  0  0  0  0
   48.8119   84.2790   43.3571 C   0  0  0  0  0  0  0  0  0  0  0  0
   50.1700   84.1341   43.1831 C   0  0  0  0  0  0  0  0  0  0  0  0
   50.6452   82.9965   42.5985 C   0  0  0  0  0  0  0  0  0  0  0  0
   49.7837   82.0184   42.1932 C   0  0  0  0  0  0  0  0  0  0  0  0
   51.3397   85.5424   43.7719 Br  0  0  0  0  0  0  0  0  0  0  0  0
   46.5882   83.4648   43.1353 F   0  0  0  0  0  0  0  0  0  0  0  0
   44.0389   77.5160   41.5390 O   0  0  0  0  0  0  0  0  0  0  0  0
   44.8314   77.1422   42.6339 C   0  0  0  0  0  0  0  0  0  0  0  0
  1  2  1  0
  2  3  1  0
  3  4  1  0
  4  5  1  0
  5  6  1  0
  6  7  1  0
  5  8  1  1
  8  9  1  0
  9 10  1  0
 10 11  2  0
 11 12  1  0
 12 13  2  0
 13 14  1  0
 14 15  2  0
 14 16  1  0
 16 17  2  0
 17 18  1  0
 18 19  2  0
 19 20  1  0
 20 21  1  0
 21 22  2  0
 22 23  1  0
 23 24  2  0
 24 25  1  0
 25 26  2  0
 24 27  1  0
 22 28  1  0
 11 29  1  0
 29 30  1  0
  7  2  1  0
 15 10  1  0
 19 13  1  0
 26 21  1  0
M  END
$$$$
